LTspice 24.0.9 for Windows
Circuit: * D:\hw\audio-visualizer\hw\adc_capture.asc
Start Time: Sun Mar 24 11:44:11 2024
solver = Normal
Maximum thread count: 24
tnom = 27
temp = 27
method = modified trap
Direct Newton iteration for .op point succeeded.
Total elapsed time: 0.036 seconds.

